! 工作目录
! D:/LEARNING/Courses/IV/FECD/manual/code
FINISH $ /CLEAR
/FILNAME,3-02
/TITLE,3-02
!==========
! 长度单位统一为mm
! 注: 用等式给参数赋值的时候
! 运算符号前后千万不要加空格
D = 5.13 $ D0 = 0.5*D
DEPTH = 1.2*D $ L = 10*D
ENUM_L=10

R1 = 1.77 $ R2 = 3.36
GL = 1.59 $ GW = 1.59

dh = 0.05 $ n = 20
h = dh*n $ DA = DH*L
SIGMA_X = 100

E = 2.1E5 $ v = 0.3
!==========
/PREP7
ET,1,SOLID186
! KEYOPT,1,2,3

ET,2,MESH200,7

MP,EX,1,E
MP,PRXY,1,v
MP,EX,2,E
MP,PRXY,2,v
!==========
! 建立工件下表面
*DIM,PQRS_1,ARRAY,4
*DO,I,1,4,1
  PQRS_1(I)=I
*ENDDO
K,1,L,L,0  ! P1
K,2,0,L,0  ! Q1
K,3,0,0,0  ! R1
K,4,L,0,0  ! S1
K,5,L/2,L/2,0  ! 中心

*DIM,L_PQRS_1,ARRAY,4
L,1,2 $ L_PQRS_1(1)=_RETURN  ! P1Q1
L,2,3 $ L_PQRS_1(2)=_RETURN  ! Q1R1
L,3,4 $ L_PQRS_1(3)=_RETURN  ! R1S1
L,4,1 $ L_PQRS_1(4)=_RETURN  ! S1P1

*DIM,PQRS_0,ARRAY,4
*DO,I,1,4,1
  PQRS_0(I)=40+I
*ENDDO
K,41,L/2+2*D0,L/2+2*D0,0  ! P0
K,42,L/2-2*D0,L/2+2*D0,0  ! Q0
K,43,L/2-2*D0,L/2-2*D0,0  ! R0
K,44,L/2+2*D0,L/2-2*D0,0  ! S0

*DIM,L_PQRS_0,ARRAY,4
L,41,42 $ L_PQRS_0(1)=_RETURN  ! R0S0
L,42,43 $ L_PQRS_0(2)=_RETURN  ! S0P0
L,43,44 $ L_PQRS_0(3)=_RETURN  ! P0Q0
L,44,41 $ L_PQRS_0(4)=_RETURN  ! Q0R0

*DIM,DIAGONAL1,ARRAY,4
L,1,41 $ DIAGONAL1(1)=_RETURN  ! P0P1
L,2,42 $ DIAGONAL1(2)=_RETURN  ! Q0Q1
L,3,43 $ DIAGONAL1(3)=_RETURN  ! R0R1
L,4,44 $ DIAGONAL1(4)=_RETURN  ! S0S1

 ! 建立过渡圆
CIRCLE,5,(D0/2+R1)/2
ARC_AISSIT1=_RETURN
*DIM,MIDPOINT,ARRAY,4  ! 创建一个储存中点序号的数组
*DO,I,1,4,1
  MIDPOINT(I)=60+I
*ENDDO
*DO,I,0,3,1  ! 创建中点、赋值并分割
  KL,ARC_AISSIT1+I,0.5,MIDPOINT(I+1)
  L,MIDPOINT(I+1),PQRS_0(I+1)
  L_CACHE=_RETURN
  LSBL,ARC_AISSIT1+I,L_CACHE
*ENDDO
LCOMB,17,19,0  ! 不要问我怎么知道是这个数
LCOMB,15,18,0  ! 我就是知道
LCOMB,14,20,0
LCOMB,21,22,0
AL,14,21,15,17
A00=_RETURN

*DIM,DIAGONAL0,ARRAY,4
*DO,I,1,4,1
  L,MIDPOINT(I),PQRS_0(I)
  DIAGONAL0(I)=_RETURN
*ENDDO

!! 建立面
*DO,I,1,3,1
  AL,L_PQRS_1(I),DIAGONAL1(I),DIAGONAL1(I+1),L_PQRS_0(I)
*ENDDO
AL,L_PQRS_1(4),DIAGONAL1(4),DIAGONAL1(1),L_PQRS_0(4)

AL,17,DIAGONAL0(1),L_PQRS_0(1),DIAGONAL0(2)
AL,14,DIAGONAL0(2),L_PQRS_0(2),DIAGONAL0(3)

! 建立圆面
CYL4,L/2,L/2,D0/2

! 减去不必要的部分
ASEL,A,LOC,X,L/2-D0/2-0.1,L/2+D0/2+0.1
ASBA,A00,ALL,,DELETE,KEEP
ASEL,ALL
*GET,A00,AREA,0,NUM,MAX

! 通过循环创建应变花
K,11,L/2+R2,L/2+GW/2
K,12,L/2+R1,L/2+GW/2
K,13,L/2+R1,L/2-GW/2
K,14,L/2+R2,L/2-GW/2

L,11,12 $ L,12,13
L,13,14 $ L,14,11
L_GAUGE1_4=_RETURN
AL,L_GAUGE1_4-3,L_GAUGE1_4-2,L_GAUGE1_4-1,L_GAUGE1_4

*DIM,DIAGONAL01,ARRAY,4
L,  PQRS_0(1),11 $ DIAGONAL01(1)=_RETURN
L,MIDPOINT(1),12 $ DIAGONAL01(2)=_RETURN
L,MIDPOINT(4),13 $ DIAGONAL01(3)=_RETURN
L,  PQRS_0(4),14 $ DIAGONAL01(4)=_RETURN

AL,L_GAUGE1_4-3,DIAGONAL01(1),DIAGONAL0(1),DIAGONAL01(2)
AL,L_GAUGE1_4-2,DIAGONAL01(2),          15,DIAGONAL01(3)
AL,L_GAUGE1_4-1,DIAGONAL01(3),DIAGONAL0(4),DIAGONAL01(4)
AL,L_GAUGE1_4  ,DIAGONAL01(4), L_PQRS_0(4),DIAGONAL01(1)

K,31,L/2+GW/2,L/2-R1
K,32,L/2-GW/2,L/2-R1
K,33,L/2-GW/2,L/2-R2
K,34,L/2+GW/2,L/2-R2

L,31,32 $ L,32,33
L,33,34 $ L,34,31
L_GAUGE3_4=_RETURN
AL,L_GAUGE3_4-3,L_GAUGE3_4-2,L_GAUGE3_4-1,L_GAUGE3_4

*DIM,DIAGONAL03,ARRAY,4
L,MIDPOINT(4),31 $ DIAGONAL03(1)=_RETURN
L,MIDPOINT(3),32 $ DIAGONAL03(2)=_RETURN
L,  PQRS_0(3),33 $ DIAGONAL03(3)=_RETURN
L,  PQRS_0(4),34 $ DIAGONAL03(4)=_RETURN

AL,L_GAUGE3_4-3,DIAGONAL03(1),          21,DIAGONAL03(2)
AL,L_GAUGE3_4-2,DIAGONAL03(2),DIAGONAL0(3),DIAGONAL03(3)
AL,L_GAUGE3_4-1,DIAGONAL03(3), L_PQRS_0(3),DIAGONAL03(4)
AL,L_GAUGE3_4  ,DIAGONAL03(4),DIAGONAL0(4),DIAGONAL03(1)

LSEL,ALL
LSEL,R,LOC,X,L/2-D0/2,L/2+D0/2
LSEL,R,LOC,Y,L/2-D0/2,L/2+D0/2
LPLOT
LESIZE,ALL,,,5

LSEL,INVE
LESIZE,ALL,,,ENUM_L


ASEL,ALL
ASEL,U,AREA,,A00
MSHKEY,1
AMESH,ALL

ASEL,INVE
MSHAPE,1,2D
MSHKEY,0
AMESH,ALL

ALLSEL,ALL

K,51,,,DEPTH-h
K,52,,,DEPTH
L,3,51
L_CACHE1=_RETURN
L,51,52
L_CACHE2=_RETURN
LESIZE,L_CACHE1,,,5
LESIZE,L_CACHE2,,,n

ASEL,ALL
VDRAG,ALL,,,,,,L_CACHE1,L_CACHE2